<?xml version="1.0" encoding="UTF-8"?>

<!-- generated on 2025-11-29T12:19:32.270131+00:00 by Eclipse SUMO netconvert 1.25.0
<netconvertConfiguration xmlns:xsi="http://www.w3.org/2001/XMLSchema-instance" xsi:noNamespaceSchemaLocation="http://sumo.dlr.de/xsd/netconvertConfiguration.xsd">

    <input>
        <osm-files value="C:\Users\manda\OneDrive\Documents\AI Traffic - Jupyter\map.osm"/>
    </input>

    <output>
        <output-file value="C:\Users\manda\OneDrive\Documents\AI Traffic - Jupyter\my_network.net.xml"/>
    </output>

    <projection>
        <proj.utm value="true"/>
    </projection>

    <processing>
        <lefthand value="true"/>
    </processing>

    <tls_building>
        <tls.discard-simple value="true"/>
        <tls.guess value="true"/>
    </tls_building>

    <ramp_guessing>
        <ramps.guess value="true"/>
    </ramp_guessing>

    <junctions>
        <no-turnarounds value="true"/>
        <junctions.corner-detail value="5"/>
    </junctions>

</netconvertConfiguration>
-->

<net version="1.20" junctionCornerDetail="5" lefthand="true" limitTurnSpeed="5.50" xmlns:xsi="http://www.w3.org/2001/XMLSchema-instance" xsi:noNamespaceSchemaLocation="http://sumo.dlr.de/xsd/net_file.xsd">

    <location netOffset="-601629.09,-5914806.65" convBoundary="0.00,-0.00,495.15,273.84" origBoundary="-1.472403,53.372515,-1.464904,53.374986" projParameter="+proj=utm +zone=30 +ellps=WGS84 +datum=WGS84 +units=m +no_defs"/>

    <type id="highway.cycleway" priority="1" numLanes="1" speed="5.56" allow="bicycle" oneway="0" width="2.00"/>
    <type id="highway.footway" priority="1" numLanes="1" speed="2.78" allow="pedestrian" oneway="1" width="2.00"/>
    <type id="highway.path" priority="1" numLanes="1" speed="5.56" allow="pedestrian bicycle" oneway="0" width="2.00"/>
    <type id="highway.residential" priority="3" numLanes="1" speed="13.89" disallow="tram rail_urban rail rail_electric rail_fast ship container cable_car subway aircraft wheelchair scooter drone" oneway="0"/>
    <type id="highway.service" priority="1" numLanes="1" speed="5.56" allow="pedestrian delivery bicycle" oneway="0"/>
    <type id="highway.steps" priority="1" numLanes="1" speed="1.39" allow="pedestrian" oneway="1" width="2.00"/>
    <type id="highway.tertiary" priority="10" numLanes="1" speed="22.22" disallow="tram rail_urban rail rail_electric rail_fast ship container cable_car subway aircraft wheelchair scooter drone" oneway="0"/>
    <type id="highway.trunk" priority="13" numLanes="2" speed="27.78" disallow="pedestrian bicycle tram rail_urban rail rail_electric rail_fast ship container cable_car subway aircraft wheelchair scooter drone" oneway="0"/>
    <type id="highway.trunk_link" priority="8" numLanes="1" speed="22.22" disallow="pedestrian bicycle tram rail_urban rail rail_electric rail_fast ship container cable_car subway aircraft wheelchair scooter drone" oneway="0"/>
    <type id="highway.unclassified" priority="4" numLanes="1" speed="13.89" disallow="tram rail_urban rail rail_electric rail_fast ship container cable_car subway aircraft wheelchair scooter drone" oneway="0"/>

    <edge id=":1080088559_0" function="internal">
        <lane id=":1080088559_0_0" index="0" disallow="tram rail_urban rail rail_electric rail_fast ship container cable_car subway aircraft wheelchair scooter drone" speed="13.89" length="5.01" shape="225.04,54.92 220.29,53.30"/>
    </edge>
    <edge id=":1080088559_1" function="internal">
        <lane id=":1080088559_1_0" index="0" disallow="tram rail_urban rail rail_electric rail_fast ship container cable_car subway aircraft wheelchair scooter drone" speed="13.89" length="5.03" shape="219.25,56.33 224.02,57.95"/>
    </edge>
    <edge id=":10839658398_0" function="internal">
        <lane id=":10839658398_0_0" index="0" allow="pedestrian bicycle" speed="5.56" length="0.10" width="2.00" shape="270.14,99.39 270.20,99.41"/>
    </edge>
    <edge id=":10839658398_1" function="internal">
        <lane id=":10839658398_1_0" index="0" allow="pedestrian bicycle" speed="5.56" length="0.10" width="2.00" shape="269.58,101.31 269.64,101.33"/>
    </edge>
    <edge id=":10839658401_0" function="internal">
        <lane id=":10839658401_0_0" index="0" allow="pedestrian bicycle" speed="5.56" length="6.30" width="2.00" shape="312.02,125.67 310.58,124.48 309.62,123.62 308.79,122.64 307.74,121.11"/>
    </edge>
    <edge id=":10839658401_1" function="internal">
        <lane id=":10839658401_1_0" index="0" allow="pedestrian bicycle" speed="5.52" length="7.47" width="2.00" shape="312.02,125.67 310.17,124.50 308.52,124.23 307.06,124.89 305.80,126.45"/>
    </edge>
    <edge id=":10839658401_2" function="internal">
        <lane id=":10839658401_2_0" index="0" allow="pedestrian bicycle" speed="4.11" length="3.82" width="2.00" shape="307.53,127.45 308.16,126.69 308.90,126.40 309.76,126.57 310.73,127.21"/>
    </edge>
    <edge id=":10839658401_3" function="internal">
        <lane id=":10839658401_3_0" index="0" allow="pedestrian bicycle" speed="5.56" length="6.70" width="2.00" shape="307.53,127.45 308.31,125.72 308.60,124.09 308.41,122.55 307.74,121.11"/>
    </edge>
    <edge id=":10839658401_4" function="internal">
        <lane id=":10839658401_4_0" index="0" allow="pedestrian bicycle" speed="5.56" length="4.49" width="2.00" shape="306.07,122.20 306.48,123.13 306.58,124.15 306.35,125.26 305.80,126.45"/>
    </edge>
    <edge id=":10839658401_5" function="internal">
        <lane id=":10839658401_5_0" index="0" allow="pedestrian bicycle" speed="5.56" length="6.88" width="2.00" shape="306.07,122.20 307.22,123.88 308.12,124.95 309.16,125.90 310.73,127.21"/>
    </edge>
    <edge id=":10839658402_0" function="internal">
        <lane id=":10839658402_0_0" index="0" allow="pedestrian bicycle" speed="5.56" length="0.21" width="2.00" shape="314.06,127.36 314.00,127.33 313.96,127.30 313.93,127.28 313.88,127.24"/>
    </edge>
    <edge id=":10839658402_1" function="internal">
        <lane id=":10839658402_1_0" index="0" allow="pedestrian bicycle" speed="5.56" length="0.63" width="2.00" shape="312.60,128.77 312.74,128.89 312.84,128.97 312.95,129.03 313.11,129.12"/>
    </edge>
    <edge id=":11083399075_0" function="internal">
        <lane id=":11083399075_0_0" index="0" disallow="tram rail_urban rail rail_electric rail_fast ship container cable_car subway aircraft wheelchair scooter drone" speed="13.41" length="6.01" shape="288.30,84.55 287.99,78.55"/>
    </edge>
    <edge id=":11083399075_1" function="internal">
        <lane id=":11083399075_1_0" index="0" allow="pedestrian bicycle" speed="5.11" length="1.78" width="2.00" shape="288.30,84.55 287.42,83.00"/>
    </edge>
    <edge id=":11083399075_6" function="internal">
        <lane id=":11083399075_6_0" index="0" allow="pedestrian bicycle" speed="5.11" length="9.07" width="2.00" shape="287.42,83.00 287.07,82.38 284.56,82.12 282.02,83.47 280.72,86.13"/>
    </edge>
    <edge id=":11083399075_2" function="internal">
        <lane id=":11083399075_2_0" index="0" allow="pedestrian bicycle" speed="6.34" length="18.70" width="2.00" shape="282.58,87.92 283.36,80.20 284.04,77.09 284.62,78.59 285.10,84.71"/>
    </edge>
    <edge id=":11083399075_3" function="internal">
        <lane id=":11083399075_3_0" index="0" allow="pedestrian bicycle" speed="9.48" length="11.18" width="2.00" shape="282.58,87.92 283.63,85.06 285.53,83.24 287.31,81.42 287.99,78.55"/>
    </edge>
    <edge id=":11083399075_4" function="internal">
        <lane id=":11083399075_4_0" index="0" allow="pedestrian bicycle" speed="9.48" length="8.77" width="2.00" shape="284.80,78.71 284.30,81.06 282.97,82.42 281.53,83.78 280.72,86.13"/>
    </edge>
    <edge id=":11083399075_5" function="internal">
        <lane id=":11083399075_5_0" index="0" disallow="tram rail_urban rail rail_electric rail_fast ship container cable_car subway aircraft wheelchair scooter drone" speed="13.41" length="6.02" shape="284.80,78.71 285.10,84.71"/>
    </edge>
    <edge id=":11083399079_0" function="internal">
        <lane id=":11083399079_0_0" index="0" allow="pedestrian bicycle" speed="5.56" length="6.18" width="2.00" shape="276.57,97.37 274.84,98.53 273.33,99.29 272.04,99.65 270.97,99.61"/>
    </edge>
    <edge id=":11083399079_1" function="internal">
        <lane id=":11083399079_1_0" index="0" allow="pedestrian bicycle" speed="5.13" length="7.94" width="2.00" shape="276.57,97.37 274.44,99.26 273.55,100.87 273.89,102.19 275.47,103.22"/>
    </edge>
    <edge id=":11083399079_2" function="internal">
        <lane id=":11083399079_2_0" index="0" allow="pedestrian bicycle" speed="3.54" length="3.30" width="2.00" shape="276.21,101.37 275.90,101.05 276.06,100.55 276.68,99.86 277.76,98.97"/>
    </edge>
    <edge id=":11083399079_3" function="internal">
        <lane id=":11083399079_3_0" index="0" allow="pedestrian bicycle" speed="5.56" length="5.54" width="2.00" shape="276.21,101.37 274.69,100.75 273.64,100.36 272.56,100.03 270.97,99.61"/>
    </edge>
    <edge id=":11083399079_4" function="internal">
        <lane id=":11083399079_4_0" index="0" allow="pedestrian bicycle" speed="5.56" length="5.28" width="2.00" shape="270.47,101.54 271.98,101.95 273.01,102.26 274.01,102.64 275.47,103.22"/>
    </edge>
    <edge id=":11083399079_5" function="internal">
        <lane id=":11083399079_5_0" index="0" allow="pedestrian bicycle" speed="5.56" length="7.96" width="2.00" shape="270.47,101.54 271.99,101.66 273.71,101.27 275.64,100.37 277.76,98.97"/>
    </edge>
    <edge id=":11339431432_0" function="internal">
        <lane id=":11339431432_0_0" index="0" allow="pedestrian delivery bicycle" speed="5.02" length="5.03" shape="225.23,164.56 225.84,163.32 226.69,162.58 227.80,162.34 229.15,162.60"/>
    </edge>
    <edge id=":11339431432_1" function="internal">
        <lane id=":11339431432_1_0" index="0" allow="pedestrian delivery bicycle" speed="5.11" length="5.09" shape="220.27,159.52 221.48,160.15 222.20,161.04 222.43,162.18 222.18,163.58"/>
    </edge>
    <edge id=":11339431432_2" function="internal">
        <lane id=":11339431432_2_0" index="0" disallow="tram rail_urban rail rail_electric rail_fast ship container cable_car subway aircraft wheelchair scooter drone" speed="8.94" length="9.40" shape="220.27,159.52 229.15,162.60"/>
    </edge>
    <edge id=":11339451270_0" function="internal">
        <lane id=":11339451270_0_0" index="0" allow="pedestrian delivery bicycle" speed="5.03" length="5.02" shape="258.94,176.31 259.57,175.09 260.44,174.37 261.55,174.14 262.90,174.42"/>
    </edge>
    <edge id=":11339451270_1" function="internal">
        <lane id=":11339451270_1_0" index="0" allow="pedestrian delivery bicycle" speed="5.07" length="5.06" shape="254.06,171.23 255.26,171.86 255.98,172.75 256.20,173.88 255.92,175.27"/>
    </edge>
    <edge id=":11339451270_2" function="internal">
        <lane id=":11339451270_2_0" index="0" disallow="tram rail_urban rail rail_electric rail_fast ship container cable_car subway aircraft wheelchair scooter drone" speed="8.94" length="9.40" shape="254.06,171.23 262.90,174.42"/>
    </edge>
    <edge id=":11349950418_0" function="internal">
        <lane id=":11349950418_0_0" index="0" allow="bicycle" speed="6.12" length="7.75" shape="213.52,153.93 213.48,155.34 214.30,156.64 215.97,157.83 218.50,158.91"/>
    </edge>
    <edge id=":11349950418_1" function="internal">
        <lane id=":11349950418_1_0" index="0" disallow="tram rail_urban rail rail_electric rail_fast ship container cable_car subway aircraft wheelchair scooter drone" speed="8.94" length="9.40" shape="209.58,155.94 218.50,158.91"/>
    </edge>
    <edge id=":11349950418_2" function="internal">
        <lane id=":11349950418_2_0" index="0" allow="bicycle" speed="6.11" length="7.77" shape="209.58,155.94 212.29,156.58 214.35,156.62 215.78,156.07 216.57,154.92"/>
    </edge>
    <edge id=":11349950420_0" function="internal">
        <lane id=":11349950420_0_0" index="0" allow="bicycle" speed="5.56" length="9.41" shape="219.01,136.96 216.11,145.91"/>
    </edge>
    <edge id=":11349950420_1" function="internal">
        <lane id=":11349950420_1_0" index="0" allow="bicycle" speed="5.56" length="10.16" shape="219.01,136.96 218.53,139.71 219.05,141.95 220.56,143.67 223.06,144.90"/>
    </edge>
    <edge id=":11349950420_2" function="internal">
        <lane id=":11349950420_2_0" index="0" allow="bicycle" speed="5.04" length="5.00" shape="224.05,141.85 222.82,141.25 222.07,140.40 221.82,139.30 222.05,137.95"/>
    </edge>
    <edge id=":11349950420_3" function="internal">
        <lane id=":11349950420_3_0" index="0" allow="bicycle" speed="5.56" length="10.16" shape="224.05,141.85 221.30,141.38 219.06,141.90 217.34,143.41 216.11,145.91"/>
    </edge>
    <edge id=":11349950420_4" function="internal">
        <lane id=":11349950420_4_0" index="0" allow="bicycle" speed="5.04" length="5.00" shape="219.16,146.89 219.76,145.66 220.61,144.92 221.71,144.66 223.06,144.90"/>
    </edge>
    <edge id=":11349950420_5" function="internal">
        <lane id=":11349950420_5_0" index="0" allow="bicycle" speed="5.56" length="9.40" shape="219.16,146.89 222.05,137.95"/>
    </edge>
    <edge id=":11349950421_0" function="internal">
        <lane id=":11349950421_0_0" index="0" allow="pedestrian delivery bicycle" speed="5.56" length="0.31" shape="226.54,142.66 226.25,142.56"/>
    </edge>
    <edge id=":11349950421_1" function="internal">
        <lane id=":11349950421_1_0" index="0" allow="pedestrian delivery bicycle" speed="5.56" length="0.28" shape="225.27,145.61 225.54,145.70"/>
    </edge>
    <edge id=":11349950422_0" function="internal">
        <lane id=":11349950422_0_0" index="0" allow="pedestrian delivery bicycle" speed="5.56" length="0.31" shape="239.77,147.04 239.47,146.94"/>
    </edge>
    <edge id=":11349950422_1" function="internal">
        <lane id=":11349950422_1_0" index="0" allow="pedestrian delivery bicycle" speed="5.56" length="0.29" shape="238.47,149.98 238.74,150.07"/>
    </edge>
    <edge id=":1234828893_0" function="internal">
        <lane id=":1234828893_0_0" index="0" disallow="pedestrian bicycle tram rail_urban rail rail_electric rail_fast ship container cable_car subway aircraft wheelchair scooter drone" speed="17.88" length="0.27" shape="207.48,107.20 207.65,107.26"/>
        <lane id=":1234828893_0_1" index="1" disallow="pedestrian bicycle tram rail_urban rail rail_electric rail_fast ship container cable_car subway aircraft wheelchair scooter drone" speed="17.88" length="0.27" shape="208.47,104.16 208.73,104.25"/>
        <lane id=":1234828893_0_2" index="2" disallow="pedestrian bicycle tram rail_urban rail rail_electric rail_fast ship container cable_car subway aircraft wheelchair scooter drone" speed="17.88" length="0.27" shape="209.47,101.12 209.80,101.23"/>
    </edge>
    <edge id=":1234828894_0" function="internal">
        <lane id=":1234828894_0_0" index="0" disallow="pedestrian bicycle tram rail_urban rail rail_electric rail_fast ship container cable_car subway aircraft wheelchair scooter drone" speed="15.64" length="21.60" shape="274.36,105.76 270.37,106.19 265.60,105.54 259.98,103.96 253.46,101.60"/>
    </edge>
    <edge id=":1234828894_1" function="internal">
        <lane id=":1234828894_1_0" index="0" disallow="pedestrian bicycle tram rail_urban rail rail_electric rail_fast ship container cable_car subway aircraft wheelchair scooter drone" speed="17.88" length="21.62" shape="273.05,111.24 267.59,108.24 263.45,105.99 259.21,103.96 253.46,101.60"/>
        <lane id=":1234828894_1_1" index="1" disallow="pedestrian bicycle tram rail_urban rail rail_electric rail_fast ship container cable_car subway aircraft wheelchair scooter drone" speed="17.88" length="21.62" shape="271.47,114.02 266.07,111.05 262.08,108.88 257.99,106.91 252.30,104.58"/>
    </edge>
    <edge id=":1234828895_0" function="internal">
        <lane id=":1234828895_0_0" index="0" disallow="tram rail_urban rail rail_electric rail_fast ship container cable_car subway aircraft wheelchair scooter drone" speed="13.41" length="3.56" shape="288.07,81.20 288.31,84.75"/>
    </edge>
    <edge id=":1234828895_1" function="internal">
        <lane id=":1234828895_1_0" index="0" disallow="tram rail_urban rail rail_electric rail_fast ship container cable_car subway aircraft wheelchair scooter drone" speed="13.41" length="3.38" shape="285.11,84.91 285.00,81.54"/>
    </edge>
    <edge id=":1234828897_0" function="internal">
        <lane id=":1234828897_0_0" index="0" allow="pedestrian bicycle" speed="5.70" length="5.00" width="2.00" shape="281.00,100.71 280.09,101.48 279.02,101.85 277.79,101.84 276.40,101.44"/>
    </edge>
    <edge id=":1234828897_1" function="internal">
        <lane id=":1234828897_1_0" index="0" disallow="tram rail_urban rail rail_electric rail_fast ship container cable_car subway aircraft wheelchair scooter drone" speed="12.15" length="8.38" shape="281.00,100.71 279.42,102.64 278.25,103.95 276.84,104.89 274.55,105.70"/>
    </edge>
    <edge id=":1234828897_2" function="internal">
        <lane id=":1234828897_2_0" index="0" allow="pedestrian bicycle" speed="5.45" length="6.29" width="2.00" shape="281.00,100.71 279.85,102.36 279.40,103.82 279.65,105.09 280.60,106.18"/>
    </edge>
    <edge id=":1234828897_3" function="internal">
        <lane id=":1234828897_3_0" index="0" allow="pedestrian bicycle" speed="5.56" length="6.30" width="2.00" shape="281.82,104.60 280.33,103.46 279.26,102.74 278.12,102.16 276.40,101.44"/>
    </edge>
    <edge id=":1234828897_4" function="internal">
        <lane id=":1234828897_4_0" index="0" allow="pedestrian bicycle" speed="8.01" length="0.44" width="2.00" shape="281.82,104.60 281.39,104.50"/>
    </edge>
    <edge id=":1234828897_7" function="internal">
        <lane id=":1234828897_7_0" index="0" allow="pedestrian bicycle" speed="8.01" length="6.99" width="2.00" shape="281.39,104.50 281.03,104.41 279.55,104.53 277.39,104.96 274.55,105.70"/>
    </edge>
    <edge id=":1234828897_5" function="internal">
        <lane id=":1234828897_5_0" index="0" allow="pedestrian bicycle" speed="3.74" length="4.55" width="2.00" shape="275.65,103.30 276.73,103.91 276.91,104.52 276.18,105.12 274.55,105.70"/>
    </edge>
    <edge id=":1234828897_6" function="internal">
        <lane id=":1234828897_6_0" index="0" allow="pedestrian bicycle" speed="5.56" length="5.76" width="2.00" shape="275.65,103.30 277.23,103.96 278.27,104.49 279.24,105.15 280.60,106.18"/>
    </edge>
    <edge id=":158733047_0" function="internal">
        <lane id=":158733047_0_0" index="0" allow="pedestrian bicycle" speed="9.72" length="2.25" width="2.00" shape="306.72,111.27 306.29,111.76 306.11,112.19 305.93,112.63 305.53,113.15"/>
    </edge>
    <edge id=":158733047_1" function="internal">
        <lane id=":158733047_1_0" index="0" allow="pedestrian bicycle" speed="9.72" length="2.09" width="2.00" shape="306.93,114.58 307.42,114.23 307.85,114.12 308.28,114.02 308.80,113.71"/>
    </edge>
    <edge id=":158733049_0" function="internal">
        <lane id=":158733049_0_0" index="0" disallow="tram rail_urban rail rail_electric rail_fast ship container cable_car subway aircraft wheelchair scooter drone" speed="13.89" length="14.28" shape="340.19,82.41 329.46,91.83"/>
    </edge>
    <edge id=":158733049_1" function="internal">
        <lane id=":158733049_1_0" index="0" disallow="tram rail_urban rail rail_electric rail_fast ship container cable_car subway aircraft wheelchair scooter drone" speed="7.97" length="3.91" shape="340.19,82.41 337.68,85.41"/>
    </edge>
    <edge id=":158733049_6" function="internal">
        <lane id=":158733049_6_0" index="0" disallow="tram rail_urban rail rail_electric rail_fast ship container cable_car subway aircraft wheelchair scooter drone" speed="7.97" length="10.34" shape="337.68,85.41 336.75,88.49 337.40,91.64 339.63,94.85"/>
    </edge>
    <edge id=":158733049_2" function="internal">
        <lane id=":158733049_2_0" index="0" disallow="tram rail_urban rail rail_electric rail_fast ship container cable_car subway aircraft wheelchair scooter drone" speed="6.47" length="9.03" shape="341.98,92.67 340.56,90.64 340.15,88.64 340.74,86.69 342.33,84.79"/>
    </edge>
    <edge id=":158733049_3" function="internal">
        <lane id=":158733049_3_0" index="0" disallow="tram rail_urban rail rail_electric rail_fast ship container cable_car subway aircraft wheelchair scooter drone" speed="8.12" length="14.18" shape="341.98,92.67 338.95,90.21 335.86,89.24 332.69,89.79 329.46,91.83"/>
    </edge>
    <edge id=":158733049_4" function="internal">
        <lane id=":158733049_4_0" index="0" disallow="tram rail_urban rail rail_electric rail_fast ship container cable_car subway aircraft wheelchair scooter drone" speed="6.65" length="9.17" shape="331.54,94.26 333.62,92.95 335.66,92.61 337.67,93.24 339.63,94.85"/>
    </edge>
    <edge id=":158733049_5" function="internal">
        <lane id=":158733049_5_0" index="0" disallow="tram rail_urban rail rail_electric rail_fast ship container cable_car subway aircraft wheelchair scooter drone" speed="13.89" length="14.36" shape="331.54,94.26 342.33,84.79"/>
    </edge>
    <edge id=":159109677_0" function="internal">
        <lane id=":159109677_0_0" index="0" disallow="tram rail_urban rail rail_electric rail_fast ship container cable_car subway aircraft wheelchair scooter drone" speed="11.18" length="13.55" shape="287.98,78.35 287.75,74.83 287.42,71.60 286.98,68.37 286.43,64.89"/>
    </edge>
    <edge id=":159109677_1" function="internal">
        <lane id=":159109677_1_0" index="0" disallow="tram rail_urban rail rail_electric rail_fast ship container cable_car subway aircraft wheelchair scooter drone" speed="7.69" length="3.51" shape="287.98,78.35 287.25,75.09 287.14,74.96"/>
    </edge>
    <edge id=":159109677_6" function="internal">
        <lane id=":159109677_6_0" index="0" disallow="tram rail_urban rail rail_electric rail_fast ship container cable_car subway aircraft wheelchair scooter drone" speed="7.69" length="9.85" shape="287.14,74.96 285.42,72.88 282.51,71.70 278.51,71.56"/>
    </edge>
    <edge id=":159109677_2" function="internal">
        <lane id=":159109677_2_0" index="0" disallow="tram rail_urban rail rail_electric rail_fast ship container cable_car subway aircraft wheelchair scooter drone" speed="6.12" length="8.08" shape="278.77,74.75 281.33,74.80 283.18,75.45 284.33,76.68 284.79,78.51"/>
    </edge>
    <edge id=":159109677_3" function="internal">
        <lane id=":159109677_3_0" index="0" disallow="tram rail_urban rail rail_electric rail_fast ship container cable_car subway aircraft wheelchair scooter drone" speed="7.86" length="14.52" shape="278.77,74.75 282.70,73.85 285.28,71.90 286.52,68.92 286.43,64.89"/>
    </edge>
    <edge id=":159109677_4" function="internal">
        <lane id=":159109677_4_0" index="0" disallow="tram rail_urban rail rail_electric rail_fast ship container cable_car subway aircraft wheelchair scooter drone" speed="6.33" length="9.04" shape="283.27,65.42 283.33,67.93 282.56,69.79 280.95,71.00 278.51,71.56"/>
    </edge>
    <edge id=":159109677_5" function="internal">
        <lane id=":159109677_5_0" index="0" disallow="tram rail_urban rail rail_electric rail_fast ship container cable_car subway aircraft wheelchair scooter drone" speed="11.18" length="13.18" shape="283.27,65.42 283.82,68.85 284.25,71.94 284.56,75.05 284.79,78.51"/>
    </edge>
    <edge id=":1757331258_0" function="internal">
        <lane id=":1757331258_0_0" index="0" disallow="bicycle tram rail_urban rail rail_electric rail_fast ship container cable_car subway aircraft wheelchair scooter drone" speed="17.88" length="0.41" shape="447.25,191.99 447.29,192.03 447.32,192.06 447.35,192.09 447.39,192.14"/>
        <lane id=":1757331258_0_1" index="1" disallow="bicycle tram rail_urban rail rail_electric rail_fast ship container cable_car subway aircraft wheelchair scooter drone" speed="17.88" length="0.41" shape="449.39,189.61 449.52,189.74 449.61,189.82 449.70,189.92 449.82,190.05"/>
    </edge>
    <edge id=":1757331259_0" function="internal">
        <lane id=":1757331259_0_0" index="0" disallow="bicycle tram rail_urban rail rail_electric rail_fast ship container cable_car subway aircraft wheelchair scooter drone" speed="13.41" length="0.26" shape="465.75,184.05 465.57,183.99"/>
        <lane id=":1757331259_0_1" index="1" disallow="bicycle tram rail_urban rail rail_electric rail_fast ship container cable_car subway aircraft wheelchair scooter drone" speed="13.41" length="0.26" shape="464.74,187.09 464.43,186.98"/>
    </edge>
    <edge id=":1757353209_0" function="internal">
        <lane id=":1757353209_0_0" index="0" disallow="pedestrian bicycle tram rail_urban rail rail_electric rail_fast ship container cable_car subway aircraft wheelchair scooter drone" speed="17.88" length="8.19" shape="225.50,90.79 223.35,89.69 222.04,88.60 220.72,87.52 218.55,86.46"/>
        <lane id=":1757353209_0_1" index="1" disallow="pedestrian bicycle tram rail_urban rail rail_electric rail_fast ship container cable_car subway aircraft wheelchair scooter drone" speed="17.88" length="8.19" shape="224.35,93.77 222.21,92.68 220.91,91.59 219.61,90.52 217.45,89.46"/>
        <lane id=":1757353209_0_2" index="2" disallow="pedestrian bicycle tram rail_urban rail rail_electric rail_fast ship container cable_car subway aircraft wheelchair scooter drone" speed="17.88" length="8.19" shape="224.35,93.77 222.04,93.15 220.36,93.10 218.67,93.06 216.35,92.47"/>
    </edge>
    <edge id=":1757353212_0" function="internal">
        <lane id=":1757353212_0_0" index="0" allow="pedestrian bicycle" speed="4.84" length="4.63" width="2.00" shape="294.44,105.51 293.03,105.48 291.97,105.11 291.25,104.41 290.89,103.38"/>
    </edge>
    <edge id=":1757353212_1" function="internal">
        <lane id=":1757353212_1_0" index="0" allow="pedestrian bicycle" speed="5.56" length="6.28" width="2.00" shape="294.44,105.51 292.58,105.67 291.31,105.82 290.05,106.03 288.22,106.41"/>
    </edge>
    <edge id=":1757353212_2" function="internal">
        <lane id=":1757353212_2_0" index="0" allow="pedestrian bicycle" speed="4.92" length="4.70" width="2.00" shape="291.72,110.47 291.82,109.27 292.33,108.37 293.26,107.79 294.60,107.51"/>
    </edge>
    <edge id=":1757353212_3" function="internal">
        <lane id=":1757353212_3_0" index="0" disallow="tram rail_urban rail rail_electric rail_fast ship container cable_car subway aircraft wheelchair scooter drone" speed="13.41" length="7.14" shape="291.72,110.47 290.89,103.38"/>
    </edge>
    <edge id=":1757353212_4" function="internal">
        <lane id=":1757353212_4_0" index="0" allow="pedestrian bicycle" speed="5.31" length="6.21" width="2.00" shape="291.72,110.47 291.37,108.45 290.66,107.10 289.62,106.42 288.22,106.41"/>
    </edge>
    <edge id=":1757353212_5" function="internal">
        <lane id=":1757353212_5_0" index="0" allow="pedestrian bicycle" speed="5.56" length="6.03" width="2.00" shape="288.63,108.37 290.39,108.01 291.60,107.80 292.81,107.66 294.60,107.51"/>
    </edge>
    <edge id=":1757353212_6" function="internal">
        <lane id=":1757353212_6_0" index="0" allow="pedestrian bicycle" speed="5.43" length="0.58" width="2.00" shape="288.63,108.37 289.17,108.14"/>
    </edge>
    <edge id=":1757353212_7" function="internal">
        <lane id=":1757353212_7_0" index="0" allow="pedestrian bicycle" speed="5.43" length="5.54" width="2.00" shape="289.17,108.14 289.88,107.82 290.67,106.81 291.01,105.33 290.89,103.38"/>
    </edge>
    <edge id=":1757353214_0" function="internal">
        <lane id=":1757353214_0_0" index="0" disallow="pedestrian bicycle tram rail_urban rail rail_electric rail_fast ship container cable_car subway aircraft wheelchair scooter drone" speed="17.88" length="5.06" shape="281.13,115.65 276.67,113.19"/>
        <lane id=":1757353214_0_1" index="1" disallow="pedestrian bicycle tram rail_urban rail rail_electric rail_fast ship container cable_car subway aircraft wheelchair scooter drone" speed="17.88" length="5.06" shape="279.56,118.44 275.15,116.01"/>
    </edge>
    <edge id=":1783045883_0" function="internal">
        <lane id=":1783045883_0_0" index="0" disallow="bicycle tram rail_urban rail rail_electric rail_fast ship container cable_car subway aircraft wheelchair scooter drone" speed="13.41" length="0.10" shape="308.56,131.35 308.64,131.39"/>
        <lane id=":1783045883_0_1" index="1" disallow="bicycle tram rail_urban rail rail_electric rail_fast ship container cable_car subway aircraft wheelchair scooter drone" speed="13.41" length="0.10" shape="307.02,134.15 307.07,134.19"/>
    </edge>
    <edge id=":1783045940_0" function="internal">
        <lane id=":1783045940_0_0" index="0" allow="pedestrian bicycle" speed="5.56" length="8.99" width="2.00" shape="305.70,126.62 304.38,128.94 303.53,130.56 302.80,132.24 301.81,134.71"/>
    </edge>
    <edge id=":1783045940_1" function="internal">
        <lane id=":1783045940_1_0" index="0" disallow="bicycle tram rail_urban rail rail_electric rail_fast ship container cable_car subway aircraft wheelchair scooter drone" speed="13.41" length="7.09" shape="308.31,131.21 302.18,127.71"/>
        <lane id=":1783045940_1_1" index="1" disallow="bicycle tram rail_urban rail rail_electric rail_fast ship container cable_car subway aircraft wheelchair scooter drone" speed="13.41" length="7.09" shape="306.75,134.00 300.57,130.47"/>
    </edge>
    <edge id=":1783045940_3" function="internal">