<?xml version="1.0" encoding="UTF-8"?>

<!-- generated on 2025-11-29 12:19:53.165730 by Eclipse SUMO randomTrips.py v1_25_0+0000-ac6c5a6752d
<configuration>
    <net-file value="C:\Users\manda\OneDrive\Documents\AI Traffic - Jupyter\my_network.net.xml"/>
    <route-file value="C:\Users\manda\OneDrive\Documents\AI Traffic - Jupyter\my_routes.rou.xml"/>
    <prefix value="trip"/>
    <period value="0.26184293787776297"/>
    <binomial value="10"/>
</configuration>
-->

<!-- generated on 2025-11-29T12:19:52.890598+00:00 by Eclipse SUMO duarouter 1.25.0
<duarouterConfiguration xmlns:xsi="http://www.w3.org/2001/XMLSchema-instance" xsi:noNamespaceSchemaLocation="http://sumo.dlr.de/xsd/duarouterConfiguration.xsd">

    <input>
        <net-file value="C:\Users\manda\OneDrive\Documents\AI Traffic - Jupyter\my_network.net.xml"/>
        <route-files value="trips.trips.xml"/>
    </input>

    <output>
        <output-file value="C:\Users\manda\OneDrive\Documents\AI Traffic - Jupyter\my_routes.rou.xml"/>
        <alternatives-output value="NUL"/>
    </output>

    <time>
        <begin value="0"/>
        <end value="3600"/>
    </time>

    <report>
        <no-warnings value="true"/>
        <ignore-errors value="true"/>
        <no-step-log value="true"/>
    </report>

</duarouterConfiguration>
-->

<routes xmlns:xsi="http://www.w3.org/2001/XMLSchema-instance" xsi:noNamespaceSchemaLocation="http://sumo.dlr.de/xsd/routes_file.xsd">
    <vehicle id="trip0" depart="0.00">
        <route edges="15833384#0 15833384#1 974103232#0 974103232#1 1193988979 107445428#0 107445428#1 107445428#2"/>
    </vehicle>
    <vehicle id="trip1" depart="0.00">
        <route edges="315129223#1 315129223#2 315129223#3 315129223#4 800859756#0 800859756#1 800859756#2"/>
    </vehicle>
    <vehicle id="trip2" depart="0.00">
        <route edges="-974103232#1 -974103232#0"/>
    </vehicle>
    <vehicle id="trip3" depart="1.00">
        <route edges="120142871 15805292#1"/>
    </vehicle>
    <vehicle id="trip4" depart="1.00">
        <route edges="315129223#4 107445426#0 107445426#1 223051907 -974103232#1"/>
    </vehicle>
    <vehicle id="trip5" depart="2.00">
        <route edges="822595542 164073716#0 164073716#1 164073716#2 324489280#0 324489280#1 324489280#2 324489280#3 822595543 821520601#0 821520601#1"/>
    </vehicle>
    <vehicle id="trip6" depart="2.00">
        <route edges="15833384#1 974103232#0"/>
    </vehicle>
    <vehicle id="trip7" depart="2.00">
        <route edges="315129223#2 315129223#3"/>
    </vehicle>
    <vehicle id="trip8" depart="2.00">
        <route edges="107445426#0 107445426#1 223051907 -974103232#1"/>
    </vehicle>
    <vehicle id="trip9" depart="2.00">
        <route edges="822595543 821520601#0 821520601#1 821520601#2"/>
    </vehicle>
    <vehicle id="trip10" depart="2.00">
        <route edges="164073716#2 315129218#0 315129218#1 107445426#0 107445426#1"/>
    </vehicle>
    <vehicle id="trip11" depart="3.00">
        <route edges="164073716#1 164073716#2 315129218#0 315129218#1"/>
    </vehicle>
    <vehicle id="trip12" depart="3.00">
        <route edges="164073716#2 821520605"/>
    </vehicle>
    <vehicle id="trip13" depart="4.00">
        <route edges="315129223#4 107445426#0 107445426#1 223051907 -974103232#1 -974103232#0 -974103233"/>
    </vehicle>
    <vehicle id="trip14" depart="4.00">
        <route edges="315129223#4 800859756#0 800859756#1"/>
    </vehicle>
    <vehicle id="trip15" depart="4.00">
        <route edges="315129223#2 315129223#3 315129223#4 800859756#0 800859756#1 800859756#2 822595541 40349438#0 40349438#1"/>
    </vehicle>
    <vehicle id="trip16" depart="5.00">
        <route edges="821520605 223051913#0 223051913#1"/>
    </vehicle>
    <vehicle id="trip17" depart="5.00">
        <route edges="315129223#3 315129223#4 107445426#0 107445426#1 223051907 -974103232#1 -974103232#0 -15833384#1 -15833384#0"/>
    </vehicle>
    <vehicle id="trip18" depart="5.00">
        <route edges="315129218#0 315129218#1 107445426#0 107445426#1 223051907"/>
    </vehicle>
    <vehicle id="trip19" depart="5.00">
        <route edges="315129223#3"/>
    </vehicle>
    <vehicle id="trip20" depart="5.00">
        <route edges="315129223#1 315129223#2 315129223#3 315129223#4"/>
    </vehicle>
    <vehicle id="trip21" depart="5.00">
        <route edges="822595542 164073716#0 164073716#1 164073716#2 315129218#0 315129218#1 107445426#0"/>
    </vehicle>
    <vehicle id="trip22" depart="5.00">
        <route edges="15805292#0 -120142871"/>
    </vehicle>
    <vehicle id="trip23" depart="6.00">
        <route edges="315129223#1"/>
    </vehicle>
    <vehicle id="trip24" depart="6.00">
        <route edges="315129223#4"/>
    </vehicle>
    <vehicle id="trip25" depart="6.00">
        <route edges="15833384#1 974103232#0 974103232#1 1193988979 107445428#0 107445428#1 107445428#2 822595541 40349438#0 40349438#1"/>
    </vehicle>
    <vehicle id="trip26" depart="7.00">
        <route edges="120142871 -15805292#0"/>
    </vehicle>
    <vehicle id="trip27" depart="7.00">
        <route edges="164073716#2 315129218#0 315129218#1 107445426#0 107445426#1 223051907 -974103232#1 -974103232#0 -974103233"/>
    </vehicle>
    <vehicle id="trip28" depart="7.00">
        <route edges="164073716#2 315129218#0 315129218#1 107445426#0 107445426#1 223051907 -974103232#1 -974103232#0"/>
    </vehicle>
    <vehicle id="trip29" depart="7.00">
        <route edges="164073716#0 164073716#1 164073716#2 315129218#0 315129218#1 107445426#0 107445426#1 223051907"/>
    </vehicle>
    <vehicle id="trip30" depart="8.00">
        <route edges="315129223#0 315129223#1 315129223#2 315129223#3 315129223#4 107445426#0 107445426#1 223051907 -974103232#1 -974103232#0 -15833384#1"/>
    </vehicle>
    <vehicle id="trip31" depart="8.00">
        <route edges="324489280#2 324489280#3 822595543 821520601#0 821520601#1"/>
    </vehicle>
    <vehicle id="trip32" depart="8.00">
        <route edges="164073716#2 324489280#0 324489280#1"/>
    </vehicle>
    <vehicle id="trip33" depart="9.00">
        <route edges="107445428#0 107445428#1 107445428#2 822595541"/>
    </vehicle>
    <vehicle id="trip34" depart="9.00">
        <route edges="822595543 821520601#0"/>
    </vehicle>
    <vehicle id="trip35" depart="10.00">
        <route edges="15833384#1 974103232#0 974103232#1 1193988979 107445428#0 107445428#1"/>
    </vehicle>
    <vehicle id="trip36" depart="10.00">
        <route edges="822595543 821520601#0 821520601#1 821520601#2"/>
    </vehicle>
    <vehicle id="trip37" depart="10.00">
        <route edges="16151549#1"/>
    </vehicle>
    <vehicle id="trip38" depart="10.00">
        <route edges="315129218#0 315129218#1 107445426#0 107445426#1 223051907 -974103232#1"/>
    </vehicle>
    <vehicle id="trip39" depart="11.00">
        <route edges="107445428#0"/>
    </vehicle>
    <vehicle id="trip40" depart="11.00">
        <route edges="315129223#2 315129223#3 315129223#4 800859756#0 800859756#1"/>
    </vehicle>
    <vehicle id="trip41" depart="11.00">
        <route edges="315129223#1 315129223#2 315129223#3 315129223#4 107445426#0"/>
    </vehicle>
    <vehicle id="trip42" depart="11.00">
        <route edges="107445426#1 223051907 -974103232#1 -974103232#0 -15833384#1"/>
    </vehicle>
    <vehicle id="trip43" depart="11.00">
        <route edges="164073716#0 164073716#1 164073716#2 315129218#0 315129218#1 107445426#0 107445426#1"/>
    </vehicle>
    <vehicle id="trip44" depart="12.00">
        <route edges="974103232#0 974103232#1"/>
    </vehicle>
    <vehicle id="trip45" depart="12.00">
        <route edges="164073716#0 164073716#1 164073716#2 315129218#0"/>
    </vehicle>
    <vehicle id="trip46" depart="12.00">
        <route edges="821520601#1"/>
    </vehicle>
    <vehicle id="trip47" depart="13.00">
        <route edges="822595543 821520601#0"/>
    </vehicle>
    <vehicle id="trip48" depart="13.00">
        <route edges="15833384#1"/>
    </vehicle>
    <vehicle id="trip49" depart="13.00">
        <route edges="164073716#2 324489280#0 324489280#1"/>
    </vehicle>
    <vehicle id="trip50" depart="13.00">
        <route edges="315129223#2 315129223#3 315129223#4 800859756#0 800859756#1"/>
    </vehicle>
    <vehicle id="trip51" depart="13.00">
        <route edges="822595542 164073716#0 164073716#1 164073716#2 821520605 223051913#0 223051913#1"/>
    </vehicle>
    <vehicle id="trip52" depart="14.00">
        <route edges="324489280#1 324489280#2 324489280#3 822595543 821520601#0 821520601#1"/>
    </vehicle>
    <vehicle id="trip53" depart="14.00">
        <route edges="-974103232#0 -15833384#1 -15833384#0"/>
    </vehicle>
    <vehicle id="trip54" depart="14.00">
        <route edges="315129223#0 315129223#1 315129223#2 315129223#3 315129223#4 107445426#0 107445426#1 223051907 -974103232#1 -974103232#0 -15833384#1"/>
    </vehicle>
    <vehicle id="trip55" depart="14.00">
        <route edges="974103232#0 974103232#1 1193988979 107445428#0 107445428#1 107445428#2 822595541 40349438#0 40349438#1"/>
    </vehicle>
    <vehicle id="trip56" depart="14.00">
        <route edges="223051913#2"/>
    </vehicle>
    <vehicle id="trip57" depart="14.00">
        <route edges="315129223#3 315129223#4 107445426#0 107445426#1"/>
    </vehicle>
    <vehicle id="trip58" depart="15.00">
        <route edges="315129223#3"/>
    </vehicle>
    <vehicle id="trip59" depart="15.00">
        <route edges="164073716#2 324489280#0 324489280#1 324489280#2 324489280#3"/>
    </vehicle>
    <vehicle id="trip60" depart="15.00">
        <route edges="315129223#0 315129223#1 315129223#2 315129223#3 315129223#4 107445426#0 107445426#1 223051907 -974103232#1"/>
    </vehicle>
    <vehicle id="trip61" depart="15.00">
        <route edges="107445426#0 107445426#1"/>
    </vehicle>
    <vehicle id="trip62" depart="15.00">
        <route edges="107445428#2 822595541 40349438#0"/>
    </vehicle>
    <vehicle id="trip63" depart="15.00">
        <route edges="107445428#0 107445428#1 107445428#2 822595541 40349438#0 40349438#1"/>
    </vehicle>
    <vehicle id="trip64" depart="16.00">
        <route edges="315129223#0 315129223#1 315129223#2 315129223#3 315129223#4 107445426#0 107445426#1 223051907 -974103232#1 -974103232#0 -15833384#1"/>
    </vehicle>
    <vehicle id="trip65" depart="16.00">
        <route edges="324489280#1"/>
    </vehicle>
    <vehicle id="trip66" depart="17.00">
        <route edges="-15805292#0"/>
    </vehicle>
    <vehicle id="trip67" depart="17.00">
        <route edges="164073716#2 315129218#0 315129218#1 107445426#0"/>
    </vehicle>
    <vehicle id="trip68" depart="17.00">
        <route edges="800859756#0 800859756#1 800859756#2 822595541 40349438#0"/>
    </vehicle>
    <vehicle id="trip69" depart="17.00">
        <route edges="16151549#1 16151549#2 16151549#3"/>
    </vehicle>
    <vehicle id="trip70" depart="18.00">
        <route edges="324489280#1 324489280#2 324489280#3 822595543 821520601#0 821520601#1"/>
    </vehicle>
    <vehicle id="trip71" depart="18.00">
        <route edges="164073716#0 164073716#1 164073716#2 315129218#0 315129218#1"/>
    </vehicle>
    <vehicle id="trip72" depart="18.00">
        <route edges="315129218#0 315129218#1 107445426#0 107445426#1 223051907 -974103232#1 -974103232#0 -15833384#1 -15833384#0"/>
    </vehicle>
    <vehicle id="trip73" depart="18.00">
        <route edges="821520605 223051913#0 223051913#1 223051913#2 821520603"/>
    </vehicle>
    <vehicle id="trip74" depart="18.00">
        <route edges="15833384#0 15833384#1 974103232#0 974103232#1"/>
    </vehicle>
    <vehicle id="trip75" depart="19.00">
        <route edges="315129223#3 315129223#4 800859756#0 800859756#1"/>
    </vehicle>
    <vehicle id="trip76" depart="19.00">
        <route edges="822595542 164073716#0 164073716#1 164073716#2 821520605"/>
    </vehicle>
    <vehicle id="trip77" depart="19.00">
        <route edges="164073716#0 164073716#1 164073716#2 315129218#0 315129218#1 107445426#0 107445426#1 223051907 -974103232#1 -974103232#0 -974103233"/>
    </vehicle>
    <vehicle id="trip78" depart="19.00">
        <route edges="315129223#3 315129223#4 800859756#0 800859756#1 800859756#2"/>
    </vehicle>
    <vehicle id="trip79" depart="19.00">
        <route edges="315129223#0 315129223#1 315129223#2"/>
    </vehicle>
    <vehicle id="trip80" depart="20.00">
        <route edges="324489280#0 324489280#1 324489280#2 324489280#3"/>
    </vehicle>
    <vehicle id="trip81" depart="20.00">
        <route edges="315129223#4 107445426#0 107445426#1 223051907 -974103232#1 -974103232#0 -15833384#1 -15833384#0"/>
    </vehicle>
    <vehicle id="trip82" depart="20.00">
        <route edges="974103233 974103232#0 974103232#1 1193988979"/>
    </vehicle>
    <vehicle id="trip83" depart="20.00">
        <route edges="315129223#3 315129223#4 107445426#0 107445426#1 223051907 -974103232#1 -974103232#0"/>
    </vehicle>
    <vehicle id="trip84" depart="21.00">
        <route edges="164073716#2 315129218#0 315129218#1 107445426#0 107445426#1 223051907"/>
    </vehicle>
    <vehicle id="trip85" depart="21.00">
        <route edges="800859756#0 800859756#1 800859756#2 822595541 40349438#0"/>
    </vehicle>
    <vehicle id="trip86" depart="21.00">
        <route edges="974103232#0 974103232#1 1193988979 107445428#0 107445428#1"/>
    </vehicle>
    <vehicle id="trip87" depart="21.00">
        <route edges="315129223#4 107445426#0"/>
    </vehicle>
    <vehicle id="trip88" depart="21.00">
        <route edges="822595542 164073716#0 164073716#1 164073716#2 315129218#0 315129218#1 107445426#0 107445426#1"/>
    </vehicle>
    <vehicle id="trip89" depart="22.00">
        <route edges="800859756#0 800859756#1 800859756#2 822595541 40349438#0 40349438#1"/>
    </vehicle>
    <vehicle id="trip90" depart="22.00">
        <route edges="315129223#4 107445426#0 107445426#1 223051907"/>
    </vehicle>
    <vehicle id="trip91" depart="22.00">
        <route edges="164073716#2 324489280#0 324489280#1 324489280#2"/>
    </vehicle>
    <vehicle id="trip92" depart="22.00">
        <route edges="315129223#0 315129223#1 315129223#2 315129223#3"/>
    </vehicle>
    <vehicle id="trip93" depart="23.00">
        <route edges="40349438#0 40349438#1"/>
    </vehicle>
    <vehicle id="trip94" depart="24.00">
        <route edges="324489280#2 324489280#3"/>
    </vehicle>
    <vehicle id="trip95" depart="24.00">
        <route edges="822595543 821520601#0 821520601#1"/>
    </vehicle>
    <vehicle id="trip96" depart="24.00">
        <route edges="324489280#0 324489280#1 324489280#2 324489280#3 822595543 821520601#0 821520601#1"/>
    </vehicle>
    <vehicle id="trip97" depart="24.00">
        <route edges="822595542 164073716#0 164073716#1 164073716#2 315129218#0 315129218#1 107445426#0 107445426#1 223051907"/>
    </vehicle>
    <vehicle id="trip98" depart="24.00">
        <route edges="822595542 164073716#0 164073716#1 164073716#2 324489280#0 324489280#1 324489280#2 324489280#3 822595543 821520601#0"/>
    </vehicle>
    <vehicle id="trip99" depart="25.00">
        <route edges="164073716#2 315129218#0 315129218#1"/>
    </vehicle>
    <vehicle id="trip100" depart="25.00">
        <route edges="15833384#0 15833384#1 -974103233"/>
    </vehicle>
    <vehicle id="trip101" depart="26.00">
        <route edges="974103233 974103232#0 974103232#1 1193988979 107445428#0 107445428#1"/>
    </vehicle>
    <vehicle id="trip102" depart="26.00">
        <route edges="821520601#1"/>
    </vehicle>
    <vehicle id="trip103" depart="26.00">
        <route edges="315129223#2 315129223#3 315129223#4 800859756#0 800859756#1 800859756#2"/>
    </vehicle>
    <vehicle id="trip104" depart="26.00">
        <route edges="324489280#2 324489280#3 822595543"/>
    </vehicle>
    <vehicle id="trip105" depart="27.00">
        <route edges="15833384#1 -974103233"/>
    </vehicle>
    <vehicle id="trip106" depart="27.00">
        <route edges="315129223#1 315129223#2 315129223#3 315129223#4 107445426#0 107445426#1"/>
    </vehicle>
    <vehicle id="trip107" depart="27.00">
        <route edges="315129223#2 315129223#3 315129223#4 800859756#0 800859756#1 800859756#2 822595541"/>
    </vehicle>
    <vehicle id="trip108" depart="27.00">
        <route edges="315129223#0 315129223#1 315129223#2 315129223#3 315129223#4 800859756#0 800859756#1 800859756#2 822595541"/>
    </vehicle>
    <vehicle id="trip109" depart="27.00">
        <route edges="315129218#1 107445426#0 107445426#1 223051907 -974103232#1"/>
    </vehicle>
    <vehicle id="trip110" depart="28.00">
        <route edges="315129223#2 315129223#3"/>
    </vehicle>
    <vehicle id="trip111" depart="28.00">
        <route edges="15833384#0 15833384#1 974103232#0 974103232#1 1193988979 107445428#0 107445428#1 107445428#2"/>
    </vehicle>
    <vehicle id="trip112" depart="28.00">
        <route edges="164073716#1 164073716#2 821520605 223051913#0 223051913#1"/>
    </vehicle>
    <vehicle id="trip113" depart="28.00">
        <route edges="822595542 164073716#0 164073716#1 164073716#2 324489280#0 324489280#1 324489280#2 324489280#3"/>
    </vehicle>
    <vehicle id="trip114" depart="28.00">
        <route edges="822595542 164073716#0 164073716#1 164073716#2 821520605"/>
    </vehicle>
    <vehicle id="trip115" depart="28.00">
        <route edges="315129223#1 315129223#2 315129223#3 315129223#4 800859756#0 800859756#1 800859756#2 822595541 40349438#0 40349438#1"/>
    </vehicle>
    <vehicle id="trip116" depart="29.00">
        <route edges="164073716#2 324489280#0"/>
    </vehicle>
    <vehicle id="trip117" depart="29.00">
        <route edges="821520601#1 821520601#2"/>
    </vehicle>
    <vehicle id="trip118" depart="29.00">
        <route edges="164073716#0 164073716#1 164073716#2 315129218#0 315129218#1 107445426#0 107445426#1"/>
    </vehicle>
    <vehicle id="trip119" depart="29.00">
        <route edges="822595542 164073716#0 164073716#1 164073716#2 324489280#0"/>
    </vehicle>
    <vehicle id="trip120" depart="29.00">
        <route edges="107445426#0 107445426#1 223051907 -974103232#1 -974103232#0 -15833384#1"/>
    </vehicle>
    <vehicle id="trip121" depart="30.00">
        <route edges="-974103232#1 -974103232#0 -974103233"/>
    </vehicle>
    <vehicle id="trip122" depart="30.00">
        <route edges="315129223#3 315129223#4"/>
    </vehicle>
    <vehicle id="trip123" depart="30.00">
        <route edges="324489280#0 324489280#1"/>
    </vehicle>
    <vehicle id="trip124" depart="31.00">
        <route edges="315129223#2 315129223#3 315129223#4 107445426#0 107445426#1 223051907 -974103232#1 -974103232#0 -974103233"/>
    </vehicle>
    <vehicle id="trip125" depart="31.00">
        <route edges="164073716#0 164073716#1 164073716#2 324489280#0 324489280#1 324489280#2 324489280#3 822595543 821520601#0 821520601#1"/>
    </vehicle>
    <vehicle id="trip126" depart="31.00">
        <route edges="324489280#1 324489280#2 324489280#3 822595543 821520601#0"/>
    </vehicle>
    <vehicle id="trip127" depart="31.00">
        <route edges="315129223#4 107445426#0"/>
    </vehicle>
    <vehicle id="trip128" depart="31.00">
        <route edges="164073716#2 315129218#0 315129218#1"/>
    </vehicle>
    <vehicle id="trip129" depart="31.00">
        <route edges="822595543 821520601#0"/>
    </vehicle>
    <vehicle id="trip130" depart="32.00">
        <route edges="315129223#1 315129223#2 315129223#3 315129223#4 800859756#0 800859756#1 800859756#2 822595541 40349438#0"/>
    </vehicle>
    <vehicle id="trip131" depart="32.00">
        <route edges="164073716#2 324489280#0 324489280#1 324489280#2 324489280#3"/>
    </vehicle>
    <vehicle id="trip132" depart="33.00">
        <route edges="324489280#2 324489280#3 822595543 821520601#0 821520601#1 821520601#2"/>
    </vehicle>
    <vehicle id="trip133" depart="33.00">
        <route edges="800859756#1"/>
    </vehicle>
    <vehicle id="trip134" depart="33.00">
        <route edges="315129223#3 315129223#4 800859756#0 800859756#1"/>
    </vehicle>
    <vehicle id="trip135" depart="33.00">
        <route edges="164073716#2 315129218#0 315129218#1"/>
    </vehicle>
    <vehicle id="trip136" depart="34.00">
        <route edges="1193988979 107445428#0 107445428#1"/>
    </vehicle>
    <vehicle id="trip137" depart="34.00">
        <route edges="822595542 164073716#0 164073716#1 164073716#2 324489280#0 324489280#1 324489280#2 324489280#3 822595543"/>
    </vehicle>
    <vehicle id="trip138" depart="34.00">
        <route edges="822595542 164073716#0 164073716#1 164073716#2 324489280#0 324489280#1 324489280#2 324489280#3 822595543 821520601#0"/>
    </vehicle>
    <vehicle id="trip139" depart="34.00">
        <route edges="164073716#2 324489280#0"/>
    </vehicle>
    <vehicle id="trip140" depart="34.00">
        <route edges="-974103232#0"/>
    </vehicle>
    <vehicle id="trip141" depart="34.00">
        <route edges="315129223#1"/>
    </vehicle>
    <vehicle id="trip142" depart="34.00">
        <route edges="324489280#3 822595543 821520601#0 821520601#1 821520601#2"/>
    </vehicle>
    <vehicle id="trip143" depart="34.00">
        <route edges="223051913#0 223051913#1 223051913#2"/>
    </vehicle>
    <vehicle id="trip144" depart="35.00">
        <route edges="315129218#0 315129218#1 107445426#0 107445426#1 223051907"/>
    </vehicle>
    <vehicle id="trip145" depart="36.00">
        <route edges="164073716#0 164073716#1 164073716#2 315129218#0 315129218#1 107445426#0 107445426#1 223051907 -974103232#1 -974103232#0 -15833384#1 -15833384#0"/>
    </vehicle>
    <vehicle id="trip146" depart="36.00">
        <route edges="315129218#1 107445426#0 107445426#1"/>
    </vehicle>
    <vehicle id="trip147" depart="36.00">
        <route edges="324489280#0 324489280#1 324489280#2 324489280#3 822595543 821520601#0"/>
    </vehicle>
    <vehicle id="trip148" depart="36.00">
        <route edges="822595542 164073716#0 164073716#1 164073716#2 821520605 223051913#0 223051913#1 223051913#2"/>
    </vehicle>
    <vehicle id="trip149" depart="36.00">
        <route edges="821520605 223051913#0 223051913#1"/>
    </vehicle>
    <vehicle id="trip150" depart="37.00">
        <route edges="164073716#0 164073716#1 164073716#2 315129218#0 315129218#1 107445426#0 107445426#1 223051907 -974103232#1"/>
    </vehicle>
    <vehicle id="trip151" depart="37.00">
        <route edges="821520605 223051913#0 223051913#1 223051913#2"/>
    </vehicle>
    <vehicle id="trip152" depart="37.00">
        <route edges="315129223#1 315129223#2 315129223#3 315129223#4 800859756#0 800859756#1 800859756#2 822595541 40349438#0 40349438#1"/>
    </vehicle>
    <vehicle id="trip153" depart="37.00">
        <route edges="107445428#0 107445428#1 107445428#2 822595541"/>
    </vehicle>
    <vehicle id="trip154" depart="37.00">
        <route edges="164073716#1 164073716#2 315129218#0 315129218#1 107445426#0 107445426#1 223051907 -974103232#1"/>
    </vehicle>
    <vehicle id="trip155" depart="38.00">
        <route edges="107445426#0 107445426#1 223051907 -974103232#1 -974103232#0 -15833384#1"/>
    </vehicle>
    <vehicle id="trip156" depart="38.00">
        <route edges="324489280#1 324489280#2 324489280#3 822595543 821520601#0"/>
    </vehicle>
    <vehicle id="trip157" depart="38.00">
        <route edges="315129223#0 315129223#1"/>
    </vehicle>
    <vehicle id="trip158" depart="38.00">
        <route edges="107445428#0 107445428#1 107445428#2"/>
    </vehicle>
    <vehicle id="trip159" depart="38.00">
        <route edges="15805292#0 15805292#1"/>
    </vehicle>
    <vehicle id="trip160" depart="39.00">
        <route edges="315129223#2 315129223#3 315129223#4"/>
    </vehicle>
    <vehicle id="trip161" depart="39.00">
        <route edges="315129223#3 315129223#4 800859756#0 800859756#1 800859756#2 822595541"/>
    </vehicle>
    <vehicle id="trip162" depart="39.00">
        <route edges="822595542 164073716#0 164073716#1 164073716#2 821520605 223051913#0 223051913#1"/>
    </vehicle>
    <vehicle id="trip163" depart="40.00">
        <route edges="315129223#4 107445426#0 107445426#1 223051907 -974103232#1"/>
    </vehicle>
    <vehicle id="trip164" depart="40.00">
        <route edges="324489280#2 324489280#3 822595543 821520601#0"/>
    </vehicle>
    <vehicle id="trip165" depart="40.00">
        <route edges="974103232#0"/>
    </vehicle>
    <vehicle id="trip166" depart="40.00">
        <route edges="800859756#0 800859756#1 800859756#2 822595541"/>
    </vehicle>
    <vehicle id="trip167" depart="40.00">
        <route edges="15833384#1 974103232#0 974103232#1 1193988979 107445428#0 107445428#1 107445428#2"/>
    </vehicle>
    <vehicle id="trip168" depart="40.00">
        <route edges="164073716#1 164073716#2 315129218#0 315129218#1 107445426#0 107445426#1 223051907 -974103232#1 -974103232#0"/>
    </vehicle>
    <vehicle id="trip169" depart="40.00">
        <route edges="315129223#3 315129223#4 800859756#0 800859756#1 800859756#2 822595541 40349438#0"/>
    </vehicle>
    <vehicle id="trip170" depart="41.00">
        <route edges="15833384#1 974103232#0 974103232#1"/>
    </vehicle>
    <vehicle id="trip171" depart="41.00">
        <route edges="164073716#1 164073716#2 315129218#0 315129218#1 107445426#0"/>
    </vehicle>
    <vehicle id="trip172" depart="42.00">
        <route edges="974103233 974103232#0"/>
    </vehicle>
    <vehicle id="trip173" depart="42.00">
        <route edges="315129223#2 315129223#3 315129223#4 800859756#0 800859756#1 800859756#2 822595541 40349438#0 40349438#1"/>
    </vehicle>
    <vehicle id="trip174" depart="43.00">
        <route edges="315129218#0 315129218#1 107445426#0"/>
    </vehicle>
    <vehicle id="trip175" depart="43.00">
        <route edges="800859756#1 800859756#2 822595541"/>
    </vehicle>
    <vehicle id="trip176" depart="43.00">
        <route edges="164073716#2 315129218#0 315129218#1 107445426#0 107445426#1 223051907"/>
    </vehicle>
    <vehicle id="trip177" depart="43.00">
        <route edges="107445426#0 107445426#1 223051907"/>
    </vehicle>
    <vehicle id="trip178" depart="44.00">
        <route edges="315129218#0"/>
    </vehicle>
    <vehicle id="trip179" depart="44.00">
        <route edges="315129223#0 315129223#1 315129223#2 315129223#3 315129223#4"/>
    </vehicle>
    <vehicle id="trip180" depart="44.00">
        <route edges="223051913#1 223051913#2"/>
    </vehicle>
    <vehicle id="trip181" depart="44.00">
        <route edges="223051907 -974103232#1"/>
    </vehicle>
    <vehicle id="trip182" depart="44.00">
        <route edges="223051907 -974103232#1 -974103232#0 -974103233"/>
    </vehicle>
    <vehicle id="trip183" depart="44.00">
        <route edges="315129223#2"/>
    </vehicle>
    <vehicle id="trip184" depart="44.00">
        <route edges="315129223#4 800859756#0 800859756#1"/>
    </vehicle>
    <vehicle id="trip185" depart="45.00">
        <route edges="324489280#2 324489280#3 822595543 821520601#0"/>
    </vehicle>
    <vehicle id="trip186" depart="45.00">
        <route edges="164073716#0"/>
    </vehicle>
    <vehicle id="trip187" depart="45.00">
        <route edges="315129223#4 800859756#0 800859756#1"/>
    </vehicle>
    <vehicle id="trip188" depart="45.00">
        <route edges="107445426#0 107445426#1"/>
    </vehicle>
    <vehicle id="trip189" depart="45.00">
        <route edges="40349438#0 40349438#1"/>
    </vehicle>
    <vehicle id="trip190" depart="46.00">
        <route edges="-974103232#1"/>
    </vehicle>
    <vehicle id="trip191" depart="47.00">
        <route edges="15833384#0 15833384#1 974103232#0 974103232#1 1193988979 107445428#0"/>
    </vehicle>
    <vehicle id="trip192" depart="47.00">
        <route edges="164073716#2 821520605"/>
    </vehicle>
    <vehicle id="trip193" depart="47.00">
        <route edges="315129223#4 800859756#0 800859756#1 800859756#2 822595541"/>
    </vehicle>
    <vehicle id="trip194" depart="47.00">
        <route edges="315129223#1 315129223#2 315129223#3 315129223#4 800859756#0 800859756#1 800859756#2 822595541"/>
    </vehicle>
    <vehicle id="trip195" depart="48.00">
        <route edges="315129223#1 315129223#2 315129223#3 315129223#4 800859756#0 800859756#1 800859756#2"/>
    </vehicle>
    <vehicle id="trip196" depart="48.00">
        <route edges="107445426#0"/>
    </vehicle>
    <vehicle id="trip197" depart="48.00">
        <route edges="315129218#0 315129218#1 107445426#0 107445426#1 223051907 -974103232#1 -974103232#0"/>
    </vehicle>
    <vehicle id="trip198" depart="48.00">
        <route edges="822595541 40349438#0"/>
    </vehicle>
    <vehicle id="trip199" depart="48.00">
        <route edges="822595541 40349438#0"/>
    </vehicle>
    <vehicle id="trip200" depart="49.00">
        <route edges="315129223#3 315129223#4 800859756#0 800859756#1"/>
    </vehicle>
    <vehicle id="trip201" depart="49.00">
        <route edges="16151549#1 16151549#2 16151549#3"/>
    </vehicle>
    <vehicle id="trip202" depart="49.00">
        <route edges="15833384#1 974103232#0 974103232#1 1193988979 107445428#0 107445428#1 107445428#2 822595541"/>
    </vehicle>
    <vehicle id="trip203" depart="50.00">
        <route edges="974103232#0 974103232#1"/>
    </vehicle>
    <vehicle id="trip204" depart="50.00">